Circuit: * C:\Users\grego\Documents\CUSF\Jerboa\pcb\solar_breakout\LTSpice\LTC3105_TA03.asc

Direct Newton iteration for .op point succeeded.

Date: Fri Feb 09 22:41:22 2018
Total elapsed time: 36.052 seconds.

tnom = 27
temp = 27
method = modified trap
totiter = 794609
traniter = 794587
tranpoints = 222380
accept = 156841
rejected = 65539
matrix size = 97
fillins = 6
solver = Normal
Matrix Compiler1: 3.48 KB object code size  1.7/1.3/[1.0]
Matrix Compiler2: off  [0.9]/1.8/1.1


